tests/fuzzer/corpus_json/21_random_023.json
{
  "version": "1.0",
  "type": "input",
  "is_batch": false,
  "attributes": {},
  "data": {
    "node": [
      {
        "id": 0,
        "u_rated": 10000.0
      },
      {
        "id": 1,
        "u_rated": 10000.0
      },
      {
        "id": 2,
        "u_rated": 10000.0
      },
      {
        "id": 3,
        "u_rated": 10000.0
      },
      {
        "id": 4,
        "u_rated": 10000.0
      },
      {
        "id": 5,
        "u_rated": 10000.0
      },
      {
        "id": 6,
        "u_rated": 10000.0
      },
      {
        "id": 7,
        "u_rated": 10000.0
      },
      {
        "id": 8,
        "u_rated": 10000.0
      },
      {
        "id": 9,
        "u_rated": 10000.0
      },
      {
        "id": 10,
        "u_rated": 10000.0
      },
      {
        "id": 11,
        "u_rated": 10000.0
      },
      {
        "id": 12,
        "u_rated": 10000.0
      },
      {
        "id": 13,
        "u_rated": 10000.0
      }
    ],
    "source": [
      {
        "id": 14,
        "node": 0,
        "status": 1,
        "u_ref": 0.9167101353661368,
        "u_ref_angle": 0.0,
        "sk": 892444100.7141745,
        "rx_ratio": 0.29601361344286764,
        "z01_ratio": 1.0
      }
    ],
    "line": [
      {
        "id": 15,
        "from_node": 0,
        "to_node": 1,
        "from_status": 1,
        "to_status": 1,
        "r1": 2.6504400505900323,
        "x1": 0.6515147062374027,
        "c1": 1.9199715753929268e-07,
        "tan1": 0.0,
        "r0": 0.3,
        "x0": 0.3,
        "c0": 1e-09,
        "tan0": 0.0,
        "i_n": 450.12783813428285
      },
      {
        "id": 16,
        "from_node": 1,
        "to_node": 2,
        "from_status": 1,
        "to_status": 1,
        "r1": 1.1051958657860954,
        "x1": 2.275164794238582,
        "c1": 2.4766967489568525e-08,
        "tan1": 0.0,
        "r0": 0.3,
        "x0": 0.3,
        "c0": 1e-09,
        "tan0": 0.0,
        "i_n": 94.91634541348864
      },
      {
        "id": 17,
        "from_node": 2,
        "to_node": 3,
        "from_status": 1,
        "to_status": 1,
        "r1": 3.5500410012245505,
        "x1": 2.1062418080709704,
        "c1": 5.126339243923559e-07,
        "tan1": 0.0,
        "r0": 0.3,
        "x0": 0.3,
        "c0": 1e-09,
        "tan0": 0.0,
        "i_n": 736.8669879956606
      },
      {
        "id": 18,
        "from_node": 3,
        "to_node": 4,
        "from_status": 1,
        "to_status": 1,
        "r1": 1.7949817989309986,
        "x1": 0.2877726482460924,
        "c1": 7.831023561605041e-07,
        "tan1": 0.0,
        "r0": 0.3,
        "x0": 0.3,
        "c0": 1e-09,
        "tan0": 0.0,
        "i_n": 593.2322479442848
      },
      {
        "id": 19,
        "from_node": 4,
        "to_node": 5,
        "from_status": 1,
        "to_status": 1,
        "r1": 3.289563550499477,
        "x1": 3.1049572756903348,
        "c1": 9.70735227578957e-07,
        "tan1": 0.0,
        "r0": 0.3,
        "x0": 0.3,
        "c0": 1e-09,
        "tan0": 0.0,
        "i_n": 369.16459329332736
      },
      {
        "id": 20,
        "from_node": 5,
        "to_node": 6,
        "from_status": 1,
        "to_status": 1,
        "r1": 3.798933061217655,
        "x1": 1.8434190738410339,
        "c1": 5.720467811917808e-07,
        "tan1": 0.0,
        "r0": 0.3,
        "x0": 0.3,
        "c0": 1e-09,
        "tan0": 0.0,
        "i_n": 663.9267881578148
      },
      {
        "id": 21,
        "from_node": 6,
        "to_node": 7,
        "from_status": 1,
        "to_status": 1,
        "r1": 1.5719555531809326,
        "x1": 0.4286806216193567,
        "c1": 4.740664227130393e-07,
        "tan1": 0.0,
        "r0": 0.3,
        "x0": 0.3,
        "c0": 1e-09,
        "tan0": 0.0,
        "i_n": 720.7348637152711
      },
      {
        "id": 22,
        "from_node": 7,
        "to_node": 8,
        "from_status": 1,
        "to_status": 1,
        "r1": 2.953048489670851,
        "x1": 2.2372577963666718,
        "c1": 6.423784655599654e-07,
        "tan1": 0.0,
        "r0": 0.3,
        "x0": 0.3,
        "c0": 1e-09,
        "tan0": 0.0,
        "i_n": 190.20892382424827
      },
      {
        "id": 23,
        "from_node": 8,
        "to_node": 9,
        "from_status": 1,
        "to_status": 1,
        "r1": 0.8926997532541558,
        "x1": 1.6170617443833002,
        "c1": 8.158734926586414e-07,
        "tan1": 0.0,
        "r0": 0.3,
        "x0": 0.3,
        "c0": 1e-09,
        "tan0": 0.0,
        "i_n": 203.65177427586102
      },
      {
        "id": 24,
        "from_node": 9,
        "to_node": 10,
        "from_status": 1,
        "to_status": 1,
        "r1": 0.5715060264739069,
        "x1": 0.493020989974679,
        "c1": 3.8933169603423075e-08,
        "tan1": 0.0,
        "r0": 0.3,
        "x0": 0.3,
        "c0": 1e-09,
        "tan0": 0.0,
        "i_n": 282.8088168851508
      },
      {
        "id": 25,
        "from_node": 10,
        "to_node": 11,
        "from_status": 1,
        "to_status": 1,
        "r1": 2.864109474442189,
        "x1": 4.103315904362622,
        "c1": 3.308048479932988e-07,
        "tan1": 0.0,
        "r0": 0.3,
        "x0": 0.3,
        "c0": 1e-09,
        "tan0": 0.0,
        "i_n": 375.9573926860382
      },
      {
        "id": 26,
        "from_node": 11,
        "to_node": 12,
        "from_status": 1,
        "to_status": 1,
        "r1": 1.4424216204194806,
        "x1": 1.523937169259015,
        "c1": 7.775824997926371e-07,
        "tan1": 0.0,
        "r0": 0.3,
        "x0": 0.3,
        "c0": 1e-09,
        "tan0": 0.0,
        "i_n": 553.5035352119228
      },
      {
        "id": 27,
        "from_node": 12,
        "to_node": 13,
        "from_status": 1,
        "to_status": 1,
        "r1": 1.292092619446414,
        "x1": 0.5356361575295127,
        "c1": 7.838090667083399e-07,
        "tan1": 0.0,
        "r0": 0.3,
        "x0": 0.3,
        "c0": 1e-09,
        "tan0": 0.0,
        "i_n": 710.072019674854
      }
    ],
    "sym_load": [
      {
        "id": 28,
        "node": 2,
        "status": 1,
        "type": 2,
        "p_specified": -71509.98276659375,
        "q_specified": 4906.280427082736
      },
      {
        "id": 29,
        "node": 3,
        "status": 1,
        "type": 1,
        "p_specified": -66548.04878039153,
        "q_specified": 9500.129376914974
      },
      {
        "id": 30,
        "node": 4,
        "status": 1,
        "type": 1,
        "p_specified": -21323.62570857584,
        "q_specified": -6748.606590991726
      },
      {
        "id": 31,
        "node": 5,
        "status": 1,
        "type": 0,
        "p_specified": 94747.12941378701,
        "q_specified": 6099.274715862564
      },
      {
        "id": 32,
        "node": 7,
        "status": 1,
        "type": 1,
        "p_specified": 49802.87267687119,
        "q_specified": -3077.148941760006
      },
      {
        "id": 33,
        "node": 9,
        "status": 1,
        "type": 0,
        "p_specified": -92601.3125838681,
        "q_specified": -4713.663389391037
      },
      {
        "id": 34,
        "node": 10,
        "status": 1,
        "type": 1,
        "p_specified": 90090.7371873316,
        "q_specified": -5680.977837494914
      },
      {
        "id": 35,
        "node": 11,
        "status": 1,
        "type": 2,
        "p_specified": 29900.62858116618,
        "q_specified": 3812.1905242872726
      },
      {
        "id": 36,
        "node": 12,
        "status": 1,
        "type": 0,
        "p_specified": -49387.52934335007,
        "q_specified": -1564.9679057403391
      }
    ]
  }
}